.arrow {
  display: inline-block;
  border: 6px solid transparent;
  border-top-color: #000;
  margin-left: 8px;
  position: relative;
  top: 6rpx;
}
/* ---------------------------- */
/*模态框*/
.modal {
  position: fixed;
  top: 0;
  right: 0;
  bottom: 0;
  left: 0;
  z-index: 1000;
}
.modal-cancel {
  position: absolute;
  z-index: 2000;
  top: 0;
  right: 0;
  bottom: 0;
  left: 0;
  background: rgba(0, 0, 0, 0.3);
}
.bottom-dialog-body {
  height: 66%;
  width: 100%;
  position: absolute;
  z-index: 3000;
  bottom: 0;
  left: 0;
  background: #dfdede;
}
/*动画前初始位置*/
.bottom-positon {
  -webkit-transform: translateY(100%);
  transform: translateY(100%);
}

/* 底部弹出框 */
.bottom-positon {
  text-align: center;
}
.Mselect {
  /* height: 56%; */
  margin-bottom: 20rpx;
}
.Mselect view {
  padding: 26rpx 0;
  background: #fff;
}
.Mselect view > button {
  display: inline-block;
}

.Mselect view:not(:last-of-type) {
  border-bottom: 1px solid #dfdede;
}
.Mcancel {
  height: 10%;
  background: #fff;
  padding: 26rpx 0;
}

.soundBtn {
  display: flex;
  padding: 0;
  background-color: transparent;
  justify-content: center;
  align-items: center;

  font-size: 25rpx;
}

.soundBtn span {
  font-size: 25rpx;
}

.soundBtn text {
  font-size: 25rpx;
}
.liju {
  font-size: 50rpx;
}

.tran {
  font-size: medium;
}
